/*--------------------------------*- C++ -*----------------------------------*\
| =========                 |                                                 |
| \\      /  F ield         | OpenFOAM: The Open Source CFD Toolbox           |
|  \\    /   O peration     | Version:  2412                                  |
|   \\  /    A nd           | Website:  www.openfoam.com                      |
|    \\/     M anipulation  |                                                 |
\*---------------------------------------------------------------------------*/
FoamFile
{
    version     2.0;
    format      binary;
    arch        "LSB;label=32;scalar=64";
    class       polyBoundaryMesh;
    location    "constant/polyMesh";
    object      boundary;
}
// * * * * * * * * * * * * * * * * * * * * * * * * * * * * * * * * * * * * * //

5
(
    bottom
    {
        type            wall;
        inGroups        1(wall);
        nFaces          200;
        startFace       95560;
    }
    top
    {
        type            wall;
        inGroups        1(wall);
        nFaces          200;
        startFace       95760;
    }
    left
    {
        type            symmetryPlane;
        inGroups        1(symmetryPlane);
        nFaces          240;
        startFace       95960;
    }
    right
    {
        type            wall;
        inGroups        1(wall);
        nFaces          240;
        startFace       96200;
    }
    frontAndBack
    {
        type            empty;
        inGroups        1(empty);
        nFaces          96000;
        startFace       96440;
    }
)

// ************************************************************************* //
